LTspice 26.0.1 for Windows
Circuit: C:\MyPrograms\Obsidian\Life\Universidad\CIRCUITOS\Sim1\T2\2-3.net
Start Time: Mon Mar  2 21:22:14 2026
solver = Normal
Maximum thread count: 8
tnom = 27
temp = 27
method = trap
WARNING: Node s:n001 is floating.

Direct Newton iteration succeeded in finding operating point.
Total elapsed time: 0.087 seconds.

Files loaded:
C:\MyPrograms\Obsidian\Life\Universidad\CIRCUITOS\Sim1\T2\2-3.net

v05: V(n5) =-5.18800753311 at 0.5
vf: V(n5) =-6 at 5
