LTspice 26.0.1 for Windows
Circuit: C:\MyPrograms\Obsidian\Life\Universidad\CIRCUITOS\Sim1\T2\Draft2.net
Start Time: Fri Mar 13 20:42:05 2026
solver = Normal
Maximum thread count: 8
tnom = 27
temp = 27
method = trap
WARNING: Node n002 is floating.

Direct Newton iteration succeeded in finding operating point.
Total elapsed time: 0.046 seconds.

Files loaded:
C:\MyPrograms\Obsidian\Life\Universidad\CIRCUITOS\Sim1\T2\Draft2.net

