LTspice 26.0.1 for Windows
Circuit: C:\MyPrograms\Obsidian\Life\Universidad\CIRCUITOS\Sim1\T2\Draft1.net
Start Time: Fri Mar 13 13:57:24 2026
solver = Normal
Maximum thread count: 8
tnom = 27
temp = 27
method = trap
Direct Newton iteration succeeded in finding operating point.
Total elapsed time: 0.042 seconds.

Files loaded:
C:\MyPrograms\Obsidian\Life\Universidad\CIRCUITOS\Sim1\T2\Draft1.net

