LTspice 26.0.1 for Windows
Circuit: C:\MyPrograms\Obsidian\Life\Universidad\CIRCUITOS\Sim1\T2\Draft2.net
Start Time: Thu Mar 19 16:53:49 2026
solver = Normal
Maximum thread count: 8
tnom = 27
temp = 27
method = trap
Direct Newton iteration succeeded in finding operating point.
Total elapsed time: 0.044 seconds.

Files loaded:
C:\MyPrograms\Obsidian\Life\Universidad\CIRCUITOS\Sim1\T2\Draft2.net

